From: "Kevin Guarnotta" <kguarnotta(-at-)usa.net>
To: <vintagebus(-at-)type2.com>
Date: Wed, 10 May 2006 16:38:02 -0400
Subject: rivet/adhesive

I did a quick search, and turned up this article on adhesive/rivet use in
new jaguars. Check pages 8-10.

I am not a welder, I don't know anything about body repair, just interested
to hear the different perspectives on the two methods.

http://www.dynamore.de/download/eu03/papers/A-II/LS-DYNA_ULM_A-II-19.pdf

-Kevin 

'71 FI squareback
'65 kombi
somerville, ma
